# generated using pymatgen
data_SrFe12O19
_symmetry_space_group_name_H-M   P6_3/mmc
_cell_length_a   5.99773823
_cell_length_b   5.99773823
_cell_length_c   23.34821500
_cell_angle_alpha   90.00000000
_cell_angle_beta   90.00000000
_cell_angle_gamma   120.00000000
_symmetry_Int_Tables_number   194
_chemical_formula_structural   SrFe12O19
_chemical_formula_sum   'Sr2 Fe24 O38'
_cell_volume   727.37660673
_cell_formula_units_Z   2
loop_
 _symmetry_equiv_pos_site_id
 _symmetry_equiv_pos_as_xyz
  1  'x, y, z'
  2  '-x, -y, -z'
  3  'x-y, x, z+1/2'
  4  '-x+y, -x, -z+1/2'
  5  '-y, x-y, z'
  6  'y, -x+y, -z'
  7  '-x, -y, z+1/2'
  8  'x, y, -z+1/2'
  9  '-x+y, -x, z'
  10  'x-y, x, -z'
  11  'y, -x+y, z+1/2'
  12  '-y, x-y, -z+1/2'
  13  '-y, -x, -z+1/2'
  14  'y, x, z+1/2'
  15  '-x, -x+y, -z'
  16  'x, x-y, z'
  17  '-x+y, y, -z+1/2'
  18  'x-y, -y, z+1/2'
  19  'y, x, -z'
  20  '-y, -x, z'
  21  'x, x-y, -z+1/2'
  22  '-x, -x+y, z+1/2'
  23  'x-y, -y, -z'
  24  '-x+y, y, z'
loop_
 _atom_type_symbol
 _atom_type_oxidation_number
  Sr2+  2.0
  Fe3+  3.0
  O2-  -2.0
loop_
 _atom_site_type_symbol
 _atom_site_label
 _atom_site_symmetry_multiplicity
 _atom_site_fract_x
 _atom_site_fract_y
 _atom_site_fract_z
 _atom_site_occupancy
  Sr2+  Sr0  2  0.33333333  0.66666667  0.75000000  1
  Fe3+  Fe1  12  0.16815400  0.33630800  0.60967400  1
  Fe3+  Fe2  4  0.33333333  0.66666667  0.30895700  1
  Fe3+  Fe3  4  0.33333333  0.66666667  0.47251500  1
  Fe3+  Fe4  2  0.00000000  0.00000000  0.00000000  1
  Fe3+  Fe5  2  0.00000000  0.00000000  0.25000000  1
  O2-  O6  12  0.01157200  0.50578600  0.65138400  1
  O2-  O7  12  0.15533300  0.31066600  0.05295300  1
  O2-  O8  6  0.18286500  0.36573000  0.25000000  1
  O2-  O9  4  0.00000000  0.00000000  0.15273800  1
  O2-  O10  4  0.33333333  0.66666667  0.55571600  1
