# generated using pymatgen
data_SrFe12O19
_symmetry_space_group_name_H-M   'P 1'
_cell_length_a   5.99773823
_cell_length_b   5.99773823
_cell_length_c   23.34821500
_cell_angle_alpha   90.00000000
_cell_angle_beta   90.00000000
_cell_angle_gamma   120.00000000
_symmetry_Int_Tables_number   1
_chemical_formula_structural   SrFe12O19
_chemical_formula_sum   'Sr2 Fe24 O38'
_cell_volume   727.37660720
_cell_formula_units_Z   2
loop_
 _symmetry_equiv_pos_site_id
 _symmetry_equiv_pos_as_xyz
  1  'x, y, z'
loop_
 _atom_type_symbol
 _atom_type_oxidation_number
  Sr2+  2.0
  Fe3+  3.0
  O2-  -2.0
loop_
 _atom_site_type_symbol
 _atom_site_label
 _atom_site_symmetry_multiplicity
 _atom_site_fract_x
 _atom_site_fract_y
 _atom_site_fract_z
 _atom_site_occupancy
  Sr2+  Sr0  1  0.33333333  0.66666667  0.75000000  1.0
  Sr2+  Sr0  1  0.66666667  0.33333333  0.25000000  1.0
  Fe3+  Fe1  1  0.16815400  0.33630800  0.60967400  1.0
  Fe3+  Fe1  1  0.83184600  0.66369200  0.39032600  1.0
  Fe3+  Fe1  1  0.83184600  0.16815400  0.10967400  1.0
  Fe3+  Fe1  1  0.16815400  0.83184600  0.89032600  1.0
  Fe3+  Fe1  1  0.66369200  0.83184600  0.60967400  1.0
  Fe3+  Fe1  1  0.33630800  0.16815400  0.39032600  1.0
  Fe3+  Fe1  1  0.83184600  0.66369200  0.10967400  1.0
  Fe3+  Fe1  1  0.16815400  0.33630800  0.89032600  1.0
  Fe3+  Fe1  1  0.16815400  0.83184600  0.60967400  1.0
  Fe3+  Fe1  1  0.83184600  0.16815400  0.39032600  1.0
  Fe3+  Fe1  1  0.33630800  0.16815400  0.10967400  1.0
  Fe3+  Fe1  1  0.66369200  0.83184600  0.89032600  1.0
  Fe3+  Fe2  1  0.33333333  0.66666667  0.30895700  1.0
  Fe3+  Fe2  1  0.66666667  0.33333333  0.69104300  1.0
  Fe3+  Fe2  1  0.66666667  0.33333333  0.80895700  1.0
  Fe3+  Fe2  1  0.33333333  0.66666667  0.19104300  1.0
  Fe3+  Fe3  1  0.33333333  0.66666667  0.47251500  1.0
  Fe3+  Fe3  1  0.66666667  0.33333333  0.52748500  1.0
  Fe3+  Fe3  1  0.66666667  0.33333333  0.97251500  1.0
  Fe3+  Fe3  1  0.33333333  0.66666667  0.02748500  1.0
  Fe3+  Fe4  1  0.00000000  0.00000000  0.00000000  1.0
  Fe3+  Fe4  1  0.00000000  0.00000000  0.50000000  1.0
  Fe3+  Fe5  1  0.00000000  0.00000000  0.25000000  1.0
  Fe3+  Fe5  1  0.00000000  0.00000000  0.75000000  1.0
  O2-  O6  1  0.01157200  0.50578600  0.65138400  1.0
  O2-  O6  1  0.98842800  0.49421400  0.34861600  1.0
  O2-  O6  1  0.50578600  0.01157200  0.15138400  1.0
  O2-  O6  1  0.49421400  0.98842800  0.84861600  1.0
  O2-  O6  1  0.49421400  0.50578600  0.65138400  1.0
  O2-  O6  1  0.50578600  0.49421400  0.34861600  1.0
  O2-  O6  1  0.98842800  0.49421400  0.15138400  1.0
  O2-  O6  1  0.01157200  0.50578600  0.84861600  1.0
  O2-  O6  1  0.49421400  0.98842800  0.65138400  1.0
  O2-  O6  1  0.50578600  0.01157200  0.34861600  1.0
  O2-  O6  1  0.50578600  0.49421400  0.15138400  1.0
  O2-  O6  1  0.49421400  0.50578600  0.84861600  1.0
  O2-  O7  1  0.15533300  0.31066600  0.05295300  1.0
  O2-  O7  1  0.84466700  0.68933400  0.94704700  1.0
  O2-  O7  1  0.84466700  0.15533300  0.55295300  1.0
  O2-  O7  1  0.15533300  0.84466700  0.44704700  1.0
  O2-  O7  1  0.68933400  0.84466700  0.05295300  1.0
  O2-  O7  1  0.31066600  0.15533300  0.94704700  1.0
  O2-  O7  1  0.84466700  0.68933400  0.55295300  1.0
  O2-  O7  1  0.15533300  0.31066600  0.44704700  1.0
  O2-  O7  1  0.15533300  0.84466700  0.05295300  1.0
  O2-  O7  1  0.84466700  0.15533300  0.94704700  1.0
  O2-  O7  1  0.31066600  0.15533300  0.55295300  1.0
  O2-  O7  1  0.68933400  0.84466700  0.44704700  1.0
  O2-  O8  1  0.18286500  0.36573000  0.25000000  1.0
  O2-  O8  1  0.81713500  0.63427000  0.75000000  1.0
  O2-  O8  1  0.81713500  0.18286500  0.75000000  1.0
  O2-  O8  1  0.18286500  0.81713500  0.25000000  1.0
  O2-  O8  1  0.63427000  0.81713500  0.25000000  1.0
  O2-  O8  1  0.36573000  0.18286500  0.75000000  1.0
  O2-  O9  1  0.00000000  0.00000000  0.15273800  1.0
  O2-  O9  1  0.00000000  0.00000000  0.84726200  1.0
  O2-  O9  1  0.00000000  0.00000000  0.65273800  1.0
  O2-  O9  1  0.00000000  0.00000000  0.34726200  1.0
  O2-  O10  1  0.33333333  0.66666667  0.55571600  1.0
  O2-  O10  1  0.66666667  0.33333333  0.44428400  1.0
  O2-  O10  1  0.66666667  0.33333333  0.05571600  1.0
  O2-  O10  1  0.33333333  0.66666667  0.94428400  1.0
