# generated using pymatgen
data_Nd2Fe14B
_symmetry_space_group_name_H-M   P4_2/mnm
_cell_length_a   8.77600400
_cell_length_b   8.77600400
_cell_length_c   12.11943200
_cell_angle_alpha   90.00000000
_cell_angle_beta   90.00000000
_cell_angle_gamma   90.00000000
_symmetry_Int_Tables_number   136
_chemical_formula_structural   Nd2Fe14B
_chemical_formula_sum   'Nd8 Fe56 B4'
_cell_volume   933.41739768
_cell_formula_units_Z   4
loop_
 _symmetry_equiv_pos_site_id
 _symmetry_equiv_pos_as_xyz
  1  'x, y, z'
  2  '-x, -y, -z'
  3  '-y+1/2, x+1/2, z+1/2'
  4  'y+1/2, -x+1/2, -z+1/2'
  5  '-x, -y, z'
  6  'x, y, -z'
  7  'y+1/2, -x+1/2, z+1/2'
  8  '-y+1/2, x+1/2, -z+1/2'
  9  'x+1/2, -y+1/2, -z+1/2'
  10  '-x+1/2, y+1/2, z+1/2'
  11  '-y, -x, -z'
  12  'y, x, z'
  13  '-x+1/2, y+1/2, -z+1/2'
  14  'x+1/2, -y+1/2, z+1/2'
  15  'y, x, -z'
  16  '-y, -x, z'
loop_
 _atom_site_type_symbol
 _atom_site_label
 _atom_site_symmetry_multiplicity
 _atom_site_fract_x
 _atom_site_fract_y
 _atom_site_fract_z
 _atom_site_occupancy
  Nd  Nd0  4  0.14272500  0.85727500  0.00000000  1
  Nd  Nd1  4  0.23157500  0.76842500  0.50000000  1
  Fe  Fe2  16  0.03678500  0.36021700  0.17630600  1
  Fe  Fe3  16  0.06734500  0.27517500  0.37270000  1
  Fe  Fe4  8  0.09794400  0.09794400  0.20462100  1
  Fe  Fe5  8  0.18218100  0.81781900  0.25432000  1
  Fe  Fe6  4  0.00000000  0.00000000  0.38492100  1
  Fe  Fe7  4  0.00000000  0.50000000  0.00000000  1
  B  B8  4  0.12318100  0.12318100  0.50000000  1
