# generated using pymatgen
data_FeBiO3
_symmetry_space_group_name_H-M   'P 1'
_cell_length_a   5.58812191
_cell_length_b   5.58812191
_cell_length_c   13.90721704
_cell_angle_alpha   90.00000000
_cell_angle_beta   90.00000000
_cell_angle_gamma   120.00000000
_symmetry_Int_Tables_number   1
_chemical_formula_structural   FeBiO3
_chemical_formula_sum   'Fe6 Bi6 O18'
_cell_volume   376.09937205
_cell_formula_units_Z   6
loop_
 _symmetry_equiv_pos_site_id
 _symmetry_equiv_pos_as_xyz
  1  'x, y, z'
loop_
 _atom_type_symbol
 _atom_type_oxidation_number
  Fe3+  3.0
  Bi3+  3.0
  O2-  -2.0
loop_
 _atom_site_type_symbol
 _atom_site_label
 _atom_site_symmetry_multiplicity
 _atom_site_fract_x
 _atom_site_fract_y
 _atom_site_fract_z
 _atom_site_occupancy
  Fe3+  Fe0  1  0.00000000  0.00000000  0.22333898  1
  Fe3+  Fe1  1  0.66666667  0.33333333  0.05667231  1
  Fe3+  Fe2  1  0.66666667  0.33333333  0.55667231  1
  Fe3+  Fe3  1  0.33333333  0.66666667  0.39000565  1
  Fe3+  Fe4  1  0.33333333  0.66666667  0.89000565  1
  Fe3+  Fe5  1  0.00000000  0.00000000  0.72333898  1
  Bi3+  Bi6  1  0.33333333  0.66666667  0.16560480  1
  Bi3+  Bi7  1  0.66666667  0.33333333  0.33227147  1
  Bi3+  Bi8  1  0.00000000  0.00000000  0.49893814  1
  Bi3+  Bi9  1  0.33333333  0.66666667  0.66560480  1
  Bi3+  Bi10  1  0.66666667  0.33333333  0.83227147  1
  Bi3+  Bi11  1  0.00000000  0.00000000  0.99893814  1
  O2-  O12  1  0.91793417  0.68453735  0.11822245  1
  O2-  O13  1  0.76660317  0.08206583  0.11822245  1
  O2-  O14  1  0.31546265  0.23339683  0.11822245  1
  O2-  O15  1  0.25126751  0.90006349  0.28488911  1
  O2-  O16  1  0.64879599  0.74873249  0.28488911  1
  O2-  O17  1  0.09993651  0.35120401  0.28488911  1
  O2-  O18  1  0.58460084  0.01787068  0.45155578  1
  O2-  O19  1  0.43326984  0.41539916  0.45155578  1
  O2-  O20  1  0.98212932  0.56673016  0.45155578  1
  O2-  O21  1  0.91793417  0.23339683  0.61822245  1
  O2-  O22  1  0.31546265  0.08206583  0.61822245  1
  O2-  O23  1  0.76660317  0.68453735  0.61822245  1
  O2-  O24  1  0.25126751  0.35120401  0.78488911  1
  O2-  O25  1  0.09993651  0.74873249  0.78488911  1
  O2-  O26  1  0.64879599  0.90006349  0.78488911  1
  O2-  O27  1  0.58460084  0.56673016  0.95155578  1
  O2-  O28  1  0.98212932  0.41539916  0.95155578  1
  O2-  O29  1  0.43326984  0.01787068  0.95155578  1
